IEEE_300_bus_test_system.m
%        IEEE 300-BUS TEST SYSTEM (American Electric Power)
%         Bus   Bus   Voltage   Angle       ----Load-----       ---Generator---       Static Mvar                         Number
%         No    code  Mag.       rad        MW       Mvar       MW       Mvar       Qmin    Qmax      +Qc/-Ql      Area   in area
busdata=[ 1      0    1.0300    -1.171     90.00     49.00      0.00     0.0        0.00     0.00       0.0000       11     1   
          2      0    1.0374    -1.138     56.00     15.00      0.00     0.0        0.00     0.00       0.0000       11     2     
          3      0    0.9971    -1.156     20.00      0.00      0.00     0.0        0.00     0.00       0.0000       11     3     
          4      0    1.0308    -1.167      0.00      0.00      0.00     0.0        0.00     0.00       0.0000       11     4     
          5      0    1.0191    -1.191    353.00    130.00      0.00     0.0        0.00     0.00       0.0000       11     5     
          6      0    1.0312    -1.152    120.00     41.00      0.00     0.0        0.00     0.00       0.0000       11     6     
          7      0    0.9934    -1.168      0.00      0.00      0.00     0.0        0.00     0.00       0.0000       11     7     
          8      2    1.0153    -1.205     58.00     14.00     -5.00     0.0      -10.00    10.00       0.0000       11     8     
          9      0    1.0034    -1.215     96.00     43.00      0.00     0.0        0.00     0.00       0.0000       11     9     
          10     2    1.0205    -1.238    148.00     33.00     -5.00     0.0      -20.00    20.00       0.0000       11     10     
          11     0    1.0057    -1.218     83.00     21.00      0.00     0.0        0.00     0.00       0.0000       11     11    
          12     0    0.9974    -1.182      0.00      0.00      0.00     0.0        0.00     0.00       0.0000       11     12     
          13     0    0.9977    -1.266     58.00     10.00      0.00     0.0        0.00     0.00       0.0000       11     13     
          14     0    0.9991    -1.277    160.00     60.00      0.00     0.0        0.00     0.00       0.0000       11     14     
          15     0    1.0343    -1.285    126.70     23.00      0.00     0.0        0.00     0.00       0.0000       11     15     
          16     0    1.0315    -1.210      0.00      0.00      0.00     0.0        0.00     0.00       0.0000       11     16     
          17     0    1.0649    -1.355    561.00    220.00      0.00     0.0        0.00     0.00       0.0000       11     17     
          18     0    0.9820    -1.235      0.00      0.00      0.00     0.0        0.00     0.00       0.0000       11     18     
          19     2    1.0010    -1.297    595.00    120.00    -10.00     0.0      -20.00    20.00       0.0000       11     19     
          20     0    0.9752    -1.234     77.00      1.00      0.00     0.0        0.00     0.00       0.0000       11     20     
          21     0    0.9963    -1.292     81.00     23.00      0.00     0.0        0.00     0.00       0.0000       11     21     
          22     0    1.0501    -1.210     21.00      7.00      0.00     0.0        0.00     0.00       0.0000       11     22     
          23     0    1.0057    -1.172      0.00      0.00      0.00     0.0        0.00     0.00       0.0000       11     23     
          24     0    1.0234    -1.251     45.00     12.00      0.00     0.0        0.00     0.00       0.0000       11     24     
          25     0    0.9986    -1.303     28.00      9.00      0.00     0.0        0.00     0.00       0.0000       11     25     
          26     0    0.9750    -1.355     69.00     13.00      0.00     0.0        0.00     0.00       0.0000       11     26     
          27     0    1.0244    -1.173     55.00      6.00      0.00     0.0        0.00     0.00       0.0000       11     27     
          28     0    1.0414    -1.208      0.00      0.00      0.00     0.0        0.00     0.00       0.0000       11     28     
          29     0    0.9757    -1.662      0.00      0.00      0.00     0.0        0.00     0.00       0.0000       11     29     
          30     0    1.0011    -1.606      0.00      0.00      0.00     0.0        0.00     0.00       0.0000       11     30     
          31     2    1.0201    -1.083     85.00     32.00      0.00     0.0        0.00     0.00       0.0000       11     31     
          32     0    1.0202    -1.174    155.00     18.00      0.00     0.0        0.00     0.00       0.0000       11     32     
          33     0    1.0535    -1.184      0.00      0.00      0.00     0.0        0.00     0.00       0.0000       11     33     
          34     0    1.0216    -1.175     46.00    -21.00      0.00     0.0        0.00     0.00       0.0000       11     34     
          35     0    1.0292    -1.116     86.00      0.00      0.00     0.0        0.00     0.00       0.0000       11     35     
          36     0    1.0448    -1.213      0.00      0.00      0.00     0.0        0.00     0.00       0.0000       11     36     
          37     0    1.0006    -1.354     39.00      9.00      0.00     0.0        0.00     0.00       0.0000       11     37     
          38     0    1.0086    -1.440    195.00     29.00      0.00     0.0        0.00     0.00       0.0000       11     38     
          39     0    1.0215    -1.406      0.00      0.00      0.00     0.0        0.00     0.00       0.0000       11     39     
          40     0    1.0344    -1.333      0.00      0.00      0.00     0.0        0.00     0.00       0.0000       11     40     
          41     0    0.9777    -1.562     58.00     11.80      0.00     0.0        0.00     0.00       0.0000       11     41     
          42     0    1.0019    -1.327     41.00     19.00      0.00     0.0        0.00     0.00       0.0000       11     42     
          43     0    1.0475    -0.236     92.00     26.00      0.00     0.0        0.00     0.00       0.0000       11     43     
          44     0    1.0253    -0.794     -5.00      5.00      0.00     0.0        0.00     0.00       0.0000       11     44     
          45     0    0.9979    -1.083     61.00     28.00      0.00     0.0        0.00     0.00       0.0000       11     45     
          46     0    0.9959    -1.379     69.00      3.00      0.00     0.0        0.00     0.00       0.0000       11     46     
          47     0    1.0050    -1.363     10.00      1.00      0.00     0.0        0.00     0.00       0.0000       11     47     
          48     0    1.0150    -1.228     22.00     10.00      0.00     0.0        0.00     0.00       0.0000       11     48     
          49     0    1.0335    -1.303     98.00     20.00      0.00     0.0        0.00     0.00       0.0000       11     49     
          50     0    0.9918    -1.319     14.00      1.00      0.00     0.0        0.00     0.00       0.0000       11     50     
          51     0    0.9789    -1.322    218.00    106.00      0.00     0.0        0.00     0.00       0.0000       11     51     
          52     0    1.0246    -1.358      0.00      0.00      0.00     0.0        0.00     0.00       0.0000       11     52     
          53     0    0.9906    -1.299    227.00    110.00      0.00     0.0        0.00     0.00       0.0000       11     53     
          54     0    1.0160    -1.279      0.00      0.00      0.00     0.0        0.00     0.00       0.0000       11     54     
          55     2    0.9583    -1.535     70.00     30.00      0.00     0.0      -25.00    25.00       0.0000       11     55     
          56     0    0.9480    -1.463      0.00      0.00      0.00     0.0        0.00     0.00       0.0000       11     56     
          57     0    0.9630    -1.693      0.00      0.00      0.00     0.0        0.00     0.00       0.0000       11     57     
          58     0    0.9513    -1.828     56.00     20.00      0.00     0.0        0.00     0.00       0.0000       11     58     
          59     0    0.9793    -1.730    116.00     38.00      0.00     0.0        0.00     0.00       0.0000       11     59     
          60     0    0.9696    -1.693     57.00     19.00      0.00     0.0        0.00     0.00       0.0000       11     60     
          61     0    0.9775    -1.649    224.00     71.00      0.00     0.0        0.00     0.00       0.0000       11     61     
          62     0    0.9964    -1.578      0.00      0.00      0.00     0.0        0.00     0.00       0.0000       11     62     
          63     2    0.9632    -1.676    208.00    107.00      0.00     0.0       12.00    35.00       0.0000       11     63     
          64     0    0.9837    -1.653     74.00     28.00      0.00     0.0        0.00     0.00       0.0000       11     64     
          65     0    0.9900    -1.638      0.00      0.00      0.00     0.0        0.00     0.00       0.0000       11     65     
          66     0    0.9820    -1.654     48.00     14.00      0.00     0.0        0.00     0.00       0.0000       11     66     
          67     0    0.9872    -1.665     28.00      7.00      0.00     0.0        0.00     0.00       0.0000       11     67     
          68     0    1.0340    -1.547      0.00      0.00      0.00     0.0        0.00     0.00       0.0000       11     68     
          69     2    1.0250    -1.525     37.00     13.00    375.00     0.0     -240.00   240.00       0.0000       11     69      
          70     0    0.9872    -1.441      0.00      0.00      0.00     0.0        0.00     0.00       0.0000       11     70     
          71     0    0.9909    -1.393      0.00      0.00      0.00     0.0        0.00     0.00       0.0000       11     71     
          72     0    0.9921    -1.327      0.00      0.00      0.00     0.0        0.00     0.00       0.0000       11     72     
          73     0    1.0151    -1.575      0.00      0.00      0.00     0.0        0.00     0.00       0.0000       11     73     
          74     0    1.0317    -1.269     44.20      0.00      0.00     0.0        0.00     0.00       0.0000       11     74     
          75     0    1.0272    -1.194     66.00      0.00      0.00     0.0        0.00     0.00       0.0000       11     75     
          76     2    1.0520    -1.289     17.40      0.00    155.00     0.0      -11.00    96.00       0.0000       11     76     
          77     2    1.0520    -1.196     15.80      0.00    290.00     0.0     -153.00   153.00       0.0000       11     77     
          78     0    0.9930    -1.345     60.30      0.00      0.00     0.0        0.00     0.00       0.0000       11     78     
          79     0    1.0183    -1.356     39.90      0.00      0.00     0.0        0.00     0.00       0.0000       11     79     
          80     2    1.0000    -1.385     66.70      0.00     68.00     0.0      -30.00    56.00       0.0000       11     80     
          81     0    0.9894    -1.478     83.50      0.00      0.00     0.0        0.00     0.00       0.0000       12     1     
          82     0    1.0060    -1.382      0.00      0.00      0.00     0.0        0.00     0.00       0.0000       12     2     
          83     0    1.0008    -1.398     77.80      0.00      0.00     0.0        0.00     0.00       0.0000       12     3     
          84     0    1.0288    -1.310     32.00      0.00      0.00     0.0        0.00     0.00       0.0000       12     4     
          85     0    0.9958    -1.431      8.60      0.00      0.00     0.0        0.00     0.00       0.0000       12     5     
          86     0    1.0223    -1.319     49.60      0.00      0.00     0.0        0.00     0.00       0.0000       12     6     
          87     0    1.0095    -1.359      4.60      0.00      0.00     0.0        0.00     0.00       0.0000       12     7     
          88     2    0.9900    -1.478    112.10      0.00    117.00     0.0      -24.00    77.00       0.0000       12     8     
          89     0    0.9749    -1.598     30.70      0.00      0.00     0.0        0.00     0.00       0.0000       12     9     
          90     0    0.9730    -1.568     63.00      0.00      0.00     0.0        0.00     0.00       0.0000       12     10     
          91     0    0.9725    -1.666     19.60      0.00      0.00     0.0        0.00     0.00       0.0000       12     11     
          92     0    0.9700    -1.597     26.20      0.00      0.00     0.0        0.00     0.00       0.0000       12     12     
          93     0    0.9747    -1.668     18.20      0.00      0.00     0.0        0.00     0.00       0.0000       12     13     
          94     0    0.9603    -1.677      0.00      0.00      0.00     0.0        0.00     0.00       0.0000       2      1    
          95     0    1.0249    -1.650      0.00      0.00      0.00     0.0        0.00     0.00       0.0000       2      2    
          96     0    0.9348    -1.528      0.00      0.00      0.00     0.0        0.00     0.00       3.2500       2      3    
          97     0    0.9298    -1.518     14.10    650.00      0.00     0.0        0.00     0.00       0.0000       2      4    
          98     2    1.0435    -1.378      0.00      0.00   1930.00     0.0     -500.00  1500.00       0.0000       2      5    
          99     0    0.9584    -1.588    777.00    215.00      0.00     0.0        0.00     0.00       0.5500       2      6    
          100    0    0.9871    -1.669    535.00     55.00      0.00     0.0        0.00     0.00       0.0000       2      7    
          101    0    0.9728    -1.684    229.10     11.80      0.00     0.0        0.00     0.00       0.0000       2      8    
          102    0    1.0006    -1.733     78.00      1.40      0.00     0.0        0.00     0.00       0.0000       2      9    
          103    2    1.0233    -1.663    276.40     59.30    240.00     0.0      -60.00   120.00       0.0000       2      10    
          104    2    1.0103    -1.724    514.80     82.70      0.00     0.0      -25.00   200.00       0.0000       2      11    
          105    0    0.9978    -1.632     57.90      5.10      0.00     0.0        0.00     0.00       0.0000       2      12    
          106    0    1.0001    -1.599    380.80     37.00      0.00     0.0        0.00     0.00       0.0000       2      13    
          107    0    1.0024    -1.478      0.00      0.00      0.00     0.0        0.00     0.00       0.0000       2      14   
          108    0    1.0028    -1.468      0.00      0.00      0.00     0.0        0.00     0.00       0.0000       2      15    
          109    0    1.0191    -1.233      0.00      0.00      0.00     0.0        0.00     0.00       0.0000       2      16    
          110    0    0.9861    -1.185      0.00      0.00      0.00     0.0        0.00     0.00       0.0000       2      17    
          111    0    1.0045    -1.280      0.00      0.00      0.00     0.0        0.00     0.00       0.0000       2      18    
          112    0    1.0020    -1.499      0.00      0.00      0.00     0.0        0.00     0.00       0.0000       2      19    
          113    0    1.0220    -1.572      0.00      0.00      0.00     0.0        0.00     0.00       0.0000       2      20    
          114    0    1.0193    -1.560    169.20     41.60      0.00     0.0        0.00     0.00       0.0000       2      21    
          115    0    1.0476    -1.431     55.20     18.20      0.00     0.0        0.00     0.00       0.0000       2      22    
          116    0    1.0471    -1.455    273.60     99.80      0.00     0.0        0.00     0.00       0.0000       2      23    
          117    2    1.0550    -1.537    826.70    135.20   -192.50     0.0     -125.00   350.00       0.0000       2      24    
          118    0    1.0117    -1.509    595.00     83.30      0.00     0.0        0.00     0.00       0.0000       2      25
          119    0    1.0430    -1.489    387.70    114.70      0.00     0.0        0.00     0.00       0.0000       2      26 
	      120    2    1.0510    -1.427    145.00     58.00    281.00     0.0      -50.00    75.00       0.0000       2      27 
	      121    0    1.0155    -1.456     56.50     24.50      0.00     0.0        0.00     0.00       0.0000       2      28
	      122    2    1.0435    -1.319     89.50     35.50    696.00     0.0     -100.00   300.00       0.0000       2      29
	      123    0    1.0160    -1.282      0.00      0.00      0.00     0.0        0.00     0.00       0.0000       2      30
	      124    0    1.0081    -1.406     24.00     14.00      0.00     0.0        0.00     0.00       0.0000       2      31
	      125    2    1.0528    -1.345      0.00      0.00     84.00     0.0      -15.00    35.00       0.0000       2      32
	      126    2    1.0528    -1.283      0.00      0.00    217.00     0.0      -50.00   100.00       0.0000       2      33
	      127    0    1.0577    -1.385     63.00     25.00      0.00     0.0        0.00     0.00       0.0000       2      34
	      128    2    1.0735    -1.309      0.00      0.00    103.00     0.0      -25.00    50.00       0.0000       2      35
	      129    0    0.9869    -1.180      0.00      0.00      0.00     0.0        0.00     0.00       0.0000       2      36
	      130    0    1.0048    -1.256      0.00      0.00      0.00     0.0        0.00     0.00       0.0000       2      37
	      131    2    1.0535    -1.322     17.00      9.00    372.00     0.0      -50.00   175.00       0.0000       2      38
	      132    2    1.0435    -1.315      0.00      0.00    216.00     0.0      -50.00    90.00       0.0000       2      39
	      133    0    0.9663    -1.490     70.00      5.00      0.00     0.0        0.00     0.00       0.3450       2      40
	      134    0    1.0177    -1.384    200.00     50.00      0.00     0.0        0.00     0.00       0.0000       2      41
	      135    2    0.9630    -1.407     75.00     50.00      0.00     0.0      -10.00    15.00       0.0000       2      42
	      136    0    0.9845    -1.640    123.50    -24.30      0.00     0.0        0.00     0.00       0.0000       2      43
	      137    0    0.9987    -1.625      0.00      0.00      0.00     0.0        0.00     0.00       0.0000       2      44
	      138    0    0.9867    -1.606     33.00     16.50      0.00     0.0        0.00     0.00       0.0000       2      45
	      139    0    0.9998    -1.646      0.00      0.00      0.00     0.0        0.00     0.00       0.0000       2      46
	      140    0    1.0360    -1.344     35.00     15.00      0.00     0.0        0.00     0.00       0.0000       2      47
	      141    0    0.9918    -1.225     85.00     24.00      0.00     0.0        0.00     0.00       0.0000       2      48
	      142    0    1.0410    -1.407      0.00      0.40      0.00     0.0        0.00     0.00       0.0000       2      49
	      143    0    0.9839    -1.339      0.00      0.00      0.00     0.0        0.00     0.00      -2.1200       2      50
	      144    0    1.0002    -1.118      0.00      0.00      0.00     0.0        0.00     0.00       0.0000       2      51
	      145    0    0.9973    -1.063      0.00      0.00      0.00     0.0        0.00     0.00      -1.0300       2      52
	      146    0    0.9715    -1.512    299.90     95.70      0.00     0.0        0.00     0.00       0.0000       2      53
	      147    0    1.0024    -1.478      0.00      0.00      0.00     0.0        0.00     0.00       0.0000       2      54
	      148    0    0.9879    -1.514      0.00      0.00      0.00     0.0        0.00     0.00       0.0000       2      55
	      149    2    0.9290    -1.321    481.80    205.00    205.00     0.0      -40.00    90.00       0.0000       2      56
	      150    2    0.9829    -1.574    763.60    291.10      0.00     0.0      -50.00   150.00       0.0000       2      57
	      151    0    1.0244    -1.539     26.50      0.00      0.00     0.0        0.00     0.00       0.0000       2      58
	      152    0    0.9837    -1.648    163.50     43.00      0.00     0.0        0.00     0.00       0.5300       2      59
	      153    0    1.0622    -1.475      0.00      0.00      0.00     0.0        0.00     0.00       0.0000       2      60
	      154    0    0.9730    -1.547    176.00     83.00      0.00     0.0        0.00     0.00       0.0000       2      61
	      155    2    1.0522    -1.358      5.00      4.00    228.00     0.0      -45.00    90.00       0.0000       2      62
	      156    2    1.0077    -1.409     28.00     12.00     84.00     0.0      -15.00    35.00       0.0000       2      63
	      157    0    0.9397    -1.511    427.40    173.60      0.00     0.0        0.00     0.00       0.0000       2      64
	      158    0    0.9699    -1.565     74.00     29.00      0.00     0.0        0.00     0.00       0.4500       2      65
	      159    0    0.9793    -1.454     69.50     49.30      0.00     0.0        0.00     0.00       0.0000       2      66
	      160    0    1.0518    -1.454     73.40      0.00      0.00     0.0        0.00     0.00       0.0000       2      67
	      161    0    1.0447    -1.508    240.70     89.00      0.00     0.0        0.00     0.00       0.0000       2      68
	      162    0    0.9717    -1.368     40.00      4.00      0.00     0.0        0.00     0.00       0.0000       2      69
	      163    0    1.0386    -1.554    136.80     16.60      0.00     0.0        0.00     0.00       0.0000       2      70
	      164    2    1.0522    -1.516      0.00      0.00    200.00     0.0      -50.00    80.00       0.0000       2      71
	      165    2    1.0650    -1.396     59.80     24.30   1200.00     0.0     -100.00   400.00       0.0000       2      72
	      166    2    1.0650    -1.412     59.80     24.30   1200.00     0.0     -100.00   400.00       0.0000       2      73
	      167    0    1.0533    -1.444    182.60     43.60      0.00     0.0        0.00     0.00       0.0000       2      74
	      168    0    0.9975    -1.696      7.00      2.00      0.00     0.0        0.00     0.00       0.0000       3      1
	      169    2    1.0551    -1.656      0.00      0.00    475.00     0.0     -300.00   300.00      -1.5000       3      2
	      170    2    1.0435    -1.266    489.00     53.00   1973.00     0.0     1000.00  1000.00       0.0000       3      3
	      171    0    0.9374    -1.577    800.00     72.00      0.00     0.0        0.00     0.00       0.0000       3      4
	      172    0    0.9897    -1.713      0.00      0.00      0.00     0.0        0.00     0.00       0.0000       3      5
	      173    0    1.0489    -1.591      0.00      0.00      0.00     0.0        0.00     0.00       0.0000       3      6
	      174    0    1.0357    -1.619      0.00      0.00      0.00     0.0        0.00     0.00       0.0000       3      7
	      175    0    0.9695    -1.672     10.00      3.00      0.00     0.0        0.00     0.00       0.0000       3      8
	      176    0    0.9907    -1.656     43.00     14.00      0.00     0.0        0.00     0.00       0.0000       3      9
	      177    2    1.0150    -1.609     64.00     21.00    424.00     0.0     -260.00   260.00       0.0000       3      10
	      178    0    0.9528    -1.699     35.00     12.00      0.00     0.0        0.00     0.00       0.0000       3      11
	      179    0    0.9550    -1.694     27.00     12.00      0.00     0.0        0.00     0.00       0.0000       3      12
	      180    0    0.9692    -1.740     41.00     14.00      0.00     0.0        0.00     0.00       0.0000       12     14
	      181    0    0.9908    -1.688     38.00     13.00      0.00     0.0        0.00     0.00       0.0000       3      13
	      182    0    1.0033    -1.641     42.00     14.00      0.00     0.0        0.00     0.00       0.0000       3      14
	      183    0    0.9718    -1.741     72.00     24.00      0.00     0.0        0.00     0.00       0.0000       3      15
	      184    0    0.9838    -1.724      0.00     -5.00      0.00     0.0        0.00     0.00       0.0000       3      16
	      185    0    0.9992    -1.688     12.00      2.00      0.00     0.0        0.00     0.00       0.0000       3      17
	      186    0    1.0137    -1.669    -21.00    -14.20      0.00     0.0        0.00     0.00       0.0000       12     15
	      187    0    0.9929    -1.704      7.00      2.00      0.00     0.0        0.00     0.00       0.0000       3      18
	      188    0    0.9999    -1.693     38.00     13.00      0.00     0.0        0.00     0.00       0.0000       3      19
	      189    0    0.9788    -1.665      0.00      0.00      0.00     0.0        0.00     0.00       0.0000       3      20
	      190    0    1.0017    -1.657     96.00      7.00      0.00     0.0        0.00     0.00       0.0000       3      21
	      191    0    1.0132    -1.647      0.00      0.00      0.00     0.0        0.00     0.00       0.0000       3      22
	      192    2    1.0100    -1.495      0.00      0.00    272.00     0.0     -150.00   150.00       0.0000       3      23
	      193    0    0.9919    -1.592     22.00     16.00      0.00     0.0        0.00     0.00       0.0000       3      24
	      194    0    0.9866    -1.634     47.00     26.00      0.00     0.0        0.00     0.00       0.0000       3      25
	      195    0    0.9751    -1.674    176.00    105.00      0.00     0.0        0.00     0.00       0.0000       3      26
	      196    0    1.0215    -1.680    100.00     75.00      0.00     0.0        0.00     0.00       0.0000       3      27
	      197    0    1.0075    -1.689    131.00     96.00      0.00     0.0        0.00     0.00       0.0000       3      28
	      198    0    1.0554    -1.658      0.00      0.00      0.00     0.0        0.00     0.00       0.0000       3      29
	      199    2    1.0080    -1.689    285.00    100.00    100.00     0.0      -60.00    60.00       0.0000       3      30
	      200    2    1.0000    -1.714    171.00     70.00    450.00     0.0     -320.00   320.00       0.0000       3      31
	      201    2    1.0500    -1.694    328.00    188.00    250.00     0.0     -300.00   300.00       0.0000       3      32
...
  
%                                        Line code                       
%           Bus  bus        R           X       1/2 B   = 1 for lines                
%           nl   nr        p.u.        p.u.      p.u.     > 1 or < 1 tr. tap at bus nl
linedata=[ 257    266     0.00006    0.00046      0              1.008
           266    270     0.00080    0.00348      0              1.000
           266    271     0.02439    0.43682      0              0.967
           266    273     0.03624    0.64898      0              0.980
           270    292     0.01578    0.37486      0              1.043
           270    293     0.01578    0.37486      0              0.939
           270    294     0.01602    0.38046      0              1.043
           270    295     0.00000    0.15200      0              1.043
           270    296     0.00000    0.80000      0              1.043
           271    272     0.05558    0.24666      0              1.000
           271    268     0.05559    0.24666      0              1.000
           273    267     0.03811    0.21643      0              1.000
           267    274     0.05370    0.07026      0              1.000
           274    276     1.10680    0.95278      0              1.000
           274    275     0.44364    2.81520      0              1.000
           267    277     0.50748    3.22020      0              1.000
           276    278     0.66688    3.94400      0              1.000
           276    279     0.61130    3.61520      0              1.000
           272    297     0.44120    2.96680      0              1.000
           272    298     0.30792    2.05700      0              1.000
           272    268     0.05580    0.24666      0              1.000
           268    280     0.73633    4.67240      0              1.000
           268    281     0.76978    4.88460      0              1.000
           268    282     0.75732    4.80560      0              1.000
           268    291     0.07378    0.06352      0              1.000
           291    269     0.03832    0.02894      0              1.000
           269    288     0.36614    2.45600      0              1.000
           269    289     1.05930    5.45360      0              1.000
           269    290     0.15670    1.69940      0              1.000
           268    283     0.13006    1.39120      0              1.000
           268    284     0.54484    3.45720      0              1.000
           268    285     0.15426    1.67290      0              1.000
           268    286     0.38490    2.57120      0              1.000
           268    287     0.44120    2.96680      0              1.000
           273    299     0.23552    0.99036      0              1.000
           294    300     0.00000    0.75000      0              0.958
           1      5       0.00100    0.00600      0              1.000
           2      6       0.00100    0.00900      0              1.000
           2      8       0.00600    0.02700      0.027          1.000
           3      7       0.00000    0.00300      0              1.000
           3      18      0.00800    0.06900      0.0695         1.000
           3      129     0.00100    0.00700      0              1.000
           4      16      0.00200    0.01900      0.5635         1.000
           5      9       0.00600    0.02900      0.009          1.000
           7      12      0.00100    0.00900      0.035          1.000
           7      110     0.00100    0.00700      0.007          1.000
           8      11      0.01300    0.05950      0.0165         1.000
           8      14      0.01300    0.04200      0.0405         1.000
           9      11      0.00600    0.02700      0.0065         1.000
           11     13      0.00800    0.03400      0.009          1.000
           12     20      0.00200    0.01500      0.059          1.000
           13     19      0.00600    0.03400      0.008          1.000
           14     15      0.01400    0.04200      0.0485         1.000
           15     31      0.06500    0.24800      0.0605         1.000
           15     74      0.09900    0.24800      0.0175         1.000
           15     75      0.09600    0.36300      0.024          1.000
           16     36      0.00200    0.02200      0.64           1.000
           18     20      0.00200    0.01800      0.018          1.000
           18     72      0.01300    0.08000      0.0755         1.000
           19     21      0.01600    0.03300      0.0075         1.000
           19     26      0.06900    0.18600      0.049          1.000
           20     23      0.00400    0.03400      0.14           1.000
           21     22      0.05200    0.11100      0.025          1.000
           22     24      0.01900    0.03900      0.009          1.000
           23     231     0.00700    0.06800      0.067          1.000
           24     25      0.03600    0.07100      0.017          1.000
           25     26      0.04500    0.12000      0.0325         1.000
           25     232     0.04300    0.13000      0.007          1.000
           27     28      0.00000    0.06300      0              1.000
           27     32      0.00250    0.01200      0.0065         1.000
           27     34      0.00600    0.02900      0.01           1.000
           27     35      0.00700    0.04300      0.013          1.000
           28     36      0.00100    0.00800      0.021          1.000
           29     60      0.01200    0.06000      0.004          1.000
           29     63      0.00600    0.01400      0.001          1.000
           29     64      0.01000    0.02900      0.0015         1.000
           30     73      0.00400    0.02700      0.0215         1.000
           31     32      0.00800    0.04700      0.004          1.000
           31     34      0.02200    0.06400      0.0035         1.000
           31     35      0.01000    0.03600      0.01           1.000
           31     43      0.01700    0.08100      0.024          1.000
           31     74      0.10200    0.25400      0.0165         1.000
           31     75      0.04700    0.12700      0.008          1.000
           32     35      0.00800    0.03700      0.01           1.000
           32     37      0.03200    0.08700      0.02           1.000
           33     36      0.00060    0.00640      0.202          1.000
           34     42      0.02600    0.15400      0.011          1.000
           35     36      0.00000    0.02900      0              1.000
           35     43      0.06500    0.19100      0.01           1.000
           35     44      0.03100    0.08900      0.018          1.000
           36     40      0.00200    0.01400      0.403          1.000
           37     38      0.02600    0.07200      0.0175         1.000
           37     42      0.09500    0.26200      0.016          1.000
           37     46      0.01300    0.03900      0.008          1.000
           38     41      0.02700    0.08400      0.0195         1.000
           38     47      0.02800    0.08400      0.0185         1.000
           39     52      0.00700    0.04100      0.156          1.000
           39     62      0.00900    0.05400      0.2055         1.000
           40     68      0.00500    0.04200      0.345          1.000
           41     61      0.05200    0.14500      0.0365         1.000
           41     92      0.04300    0.11800      0.0065         1.000
           42     87      0.02500    0.06200      0.0035         1.000
           43     44      0.03100    0.09400      0.0215         1.000
           44     45      0.03700    0.10900      0.0245         1.000
           45     48      0.02700    0.08000      0.018          1.000
           46     47      0.02500    0.07300      0.0175         1.000
           47     48      0.03500    0.10300      0.0235         1.000
           48     49      0.06500    0.16900      0.041          1.000
           49     50      0.04600    0.08000      0.018          1.000
           49     55      0.15900    0.53700      0.0355         1.000
           50     51      0.00900    0.02600      0.0025         1.000
           51     53      0.00200    0.01300      0.0075         1.000
           52     54      0.00900    0.06500      0.2425         1.000
           54     56      0.01600    0.10500      0.1015         1.000
           54     123     0.00100    0.00700      0.0065         1.000
           55     236     0.02650    0.17200      0.013          1.000
           57     190     0.05100    0.23200      0.014          1.000
           57     66      0.05100    0.15700      0.0115         1.000
           58     59      0.03200    0.10000      0.031          1.000
           58     237     0.02000    0.12340      0.014          1.000
           59     60      0.03600    0.13100      0.034          1.000
           59     61      0.03400    0.09900      0.0235         1.000
           60     64      0.01800    0.08700      0.0055         1.000
           60     238     0.02560    0.19300      0              1.000
           61     63      0.02100    0.05700      0.015          1.000
           61     66      0.01800    0.05200      0.009          1.000
           62     73      0.00400    0.02700      0.025          1.000
           62     240     0.02860    0.20130      0.1895         1.000
           63     64      0.01600    0.04300      0.002          1.000
           64     65      0.00100    0.00600      0.0035         1.000
           64     67      0.01400    0.07000      0.019          1.000
           64     239     0.08910    0.26760      0.0145         1.000
           64     241     0.07820    0.21270      0.011          1.000
           65     66      0.00600    0.02200      0.0055         1.000
           65     69      0.00000    0.03600      0              1.000
           66     190     0.09900    0.37500      0.0255         1.000
           67     190     0.02200    0.10700      0.029          1.000
           68     173     0.00350    0.03300      0.265          1.000
           68     174     0.00350    0.03300      0.265          1.000
           70     71      0.00800    0.06400      0.064          1.000
           71     72      0.01200    0.09300      0.0915         1.000
           71     234     0.00600    0.04800      0.046          1.000
           74     76      0.04700    0.11900      0.007          1.000
           75     77      0.03200    0.17400      0.012          1.000
           76     78      0.10000    0.25300      0.0155         1.000
           76     79      0.02200    0.07700      0.0195         1.000
           77     84      0.01900    0.14400      0.0085         1.000
           77     86      0.01700    0.09200      0.006          1.000
           78     79      0.27800    0.42700      0.0215         1.000
           79     82      0.02200    0.05300      0.0035         1.000
           79     83      0.03800    0.09200      0.006          1.000
           79     84      0.04800    0.12200      0.0075         1.000
           80     82      0.02400    0.06400      0.0035         1.000
           80     83      0.03400    0.12100      0.0075         1.000
           81     87      0.05300    0.13500      0.0085         1.000
           81     88      0.00200    0.00400      0.001          1.000
           81     89      0.04500    0.35400      0.022          1.000
           81     90      0.05000    0.17400      0.011          1.000
           82     83      0.01600    0.03800      0.002          1.000
           83     85      0.04300    0.06400      0.0135         1.000
           84     86      0.01900    0.06200      0.004          1.000
           85     88      0.07600    0.13000      0.022          1.000
           85     233     0.04400    0.12400      0.0075         1.000
           86     87      0.01200    0.08800      0.0055         1.000
           86     90      0.15700    0.40000      0.0235         1.000
           88     235     0.07400    0.20800      0.013          1.000
           89     90      0.07000    0.18400      0.0105         1.000
           89     92      0.10000    0.27400      0.0155         1.000
           89     93      0.10900    0.39300      0.018          1.000
           90     91      0.14200    0.40400      0.025          1.000
           91     93      0.01700    0.04200      0.003          1.000
           94     101     0.00360    0.01990      0.002          1.000
           95     99      0.00200    0.10490      0.0005         1.000
           96     97      0.00010    0.00180      0.0085         1.000
           97     98      0.00000    0.02710      0              1.000
           97     245     0.00000    0.61630      0              1.000
           245    99      0.00000   -0.36970      0              1.000
           97     100     0.00220    0.29150      0              1.000
           98     99      0.00000    0.03390      0              1.000
           98     100     0.00000    0.05820      0              1.000
           101    102     0.08080    0.23440      0.0145         1.000
           101    104     0.09650    0.36690      0.027          1.000
           102    103     0.03600    0.10760      0.0585         1.000
           102    104     0.04760    0.14140      0.0745         1.000
           104    105     0.00060    0.01970      0              1.000
           105    106     0.00590    0.04050      0.125          1.000
           105    108     0.01150    0.11060      0.0925         1.000
           105    111     0.01980    0.16880      0.1605         1.000
           105    136     0.00500    0.05000      0.165          1.000
           105    137     0.00770    0.05380      0.1675         1.000
           105    148     0.01650    0.11570      0.0855         1.000
           106    107     0.00590    0.05770      0.0475         1.000
           106    113     0.00490    0.03360      0.104          1.000
           106    147     0.00590    0.05770      0.0475         1.000
           107    109     0.00780    0.07730      0.063          1.000
           107    112     0.00260    0.01930      0.015          1.000
           108    109     0.00760    0.07520      0.061          1.000
           108    112     0.00210    0.01860      0.015          1.000
           109    111     0.00160    0.01640      0.013          1.000
           109    130     0.00170    0.01650      0.013          1.000
           109    146     0.00790    0.07930      0.0635         1.000
...
